Info: SIMULATION PARAMETERS:
Info: TIMESTEP               2
Info: NUMBER OF STEPS        0
Info: STEPS PER CYCLE        20
Info: PERIODIC CELL BASIS 1  92.244 0 0
Info: PERIODIC CELL BASIS 2  0 92.244 0
Info: PERIODIC CELL BASIS 3  0 0 92.244
Info: PERIODIC CELL CENTER   46.122 46.122 46.122
Info: WRAPPING WATERS AROUND PERIODIC BOUNDARIES ON OUTPUT.
Info: WRAPPING ALL CLUSTERS AROUND PERIODIC BOUNDARIES ON OUTPUT.
Info: FIRST LDB TIMESTEP     100
Info: LAST LDB TIMESTEP     -1
Info: HOM BACKGROUND SCALING 1
Info: PME BACKGROUND SCALING 1
Info: MIN ATOMS PER PATCH    40
Info: INITIAL TEMPERATURE    310
Info: CENTER OF MASS MOVING INITIALLY? NO
Info: DIELECTRIC             1
Info: EXCLUDE                SCALED ONE-FOUR
Info: 1-4 ELECTROSTATICS SCALED BY 1
Info: MODIFIED 1-4 VDW PARAMETERS WILL BE USED
Info: DCD FILENAME           LIQ_BOX_PROD.dcd
Info: DCD FREQUENCY          5000
Info: DCD FIRST STEP         5000
Info: DCD FILE WILL CONTAIN UNIT CELL DATA
Info: XST FILENAME           LIQ_BOX_PROD.xst
Info: XST FREQUENCY          5000
Info: NO VELOCITY DCD OUTPUT
Info: NO FORCE DCD OUTPUT
Info: OUTPUT FILENAME        LIQ_BOX_PROD
Info: BINARY OUTPUT FILES WILL BE USED
Info: RESTART FILENAME       LIQ_BOX_PROD.restart
Info: RESTART FREQUENCY      5000
Info: BINARY RESTART FILES WILL BE USED
Info: SWITCHING ACTIVE
Info: VDW FORCE SWITCHING ACTIVE
Info: SWITCHING ON           10
Info: SWITCHING OFF          12
Info: PAIRLIST DISTANCE      16
Info: PAIRLIST SHRINK RATE   0.01
Info: PAIRLIST GROW RATE     0.01
Info: PAIRLIST TRIGGER       0.3
Info: PAIRLISTS PER CYCLE    2
Info: PAIRLISTS ENABLED
Info: MARGIN                 0
Info: HYDROGEN GROUP CUTOFF  2.5
Info: PATCH DIMENSION        18.5
Info: ENERGY OUTPUT STEPS    5000
Info: CROSSTERM ENERGY INCLUDED IN DIHEDRAL
Info: TIMING OUTPUT STEPS    5000
Info: COLLECTIVE VARIABLES CALCULATION REQUESTED
Info: COLLECTIVE VARIABLES CONFIGURATION   colvars.col
Info: LANGEVIN DYNAMICS ACTIVE
Info: LANGEVIN TEMPERATURE   310
Info: LANGEVIN USING BBK INTEGRATOR
Info: LANGEVIN DAMPING COEFFICIENT IS 1 INVERSE PS
Info: LANGEVIN DYNAMICS NOT APPLIED TO HYDROGENS
Info: PARTICLE MESH EWALD (PME) ACTIVE
Info: PME TOLERANCE               1e-06
Info: PME EWALD COEFFICIENT       0.257952
Info: PME INTERPOLATION ORDER     6
Info: PME GRID DIMENSIONS         96 96 96
Info: PME MAXIMUM GRID SPACING    1
Info: FULL ELECTROSTATIC EVALUATION FREQUENCY      1
Info: USING VERLET I (r-RESPA) MTS SCHEME.
Info: C1 SPLITTING OF LONG RANGE ELECTROSTATICS
Info: PLACING ATOMS IN PATCHES BY HYDROGEN GROUPS
Info: RIGID BONDS TO HYDROGEN : ALL
Info:         ERROR TOLERANCE : 1e-08
Info:          MAX ITERATIONS : 100
Info: RIGID WATER USING SETTLE ALGORITHM
Info: RANDOM NUMBER SEED     1642558402
Info: USE HYDROGEN BONDS?    NO
Info: COORDINATE PDB         LIQ_BOX_EQ.pdb
Info: STRUCTURE FILE         LIQ_BOX_EQ.psf
Info: PARAMETER file: CHARMM format!
Info: PARAMETERS             toppar/par_all36_prot.prm
Info: PARAMETERS             toppar/toppar_all36_prot_heme.str
Info: PARAMETERS             toppar/NAMD_toppar_water_ions_with_par_all36_prot_only_version.str
Info: PARAMETERS             toppar/GCMC_water_O2_FF_NAMD.inp
Info: USING ARITHMETIC MEAN TO COMBINE L-J SIGMA PARAMETERS
Info: SKIPPING rtf SECTION IN STREAM FILE
Info: SKIPPING rtf SECTION IN STREAM FILE
Info: SUMMARY OF PARAMETERS:
Info: 156 BONDS
Info: 406 ANGLES
Info: 730 DIHEDRAL
Info: 44 IMPROPER
Info: 6 CROSSTERM
Info: 81 VDW
Info: 3 VDW_PAIRS
Info: 0 NBTHOLE_PAIRS
Info: STRUCTURE SUMMARY:
Info: 74539 ATOMS
Info: 50538 BONDS
Info: 28545 ANGLES
Info: 6596 DIHEDRALS
Info: 467 IMPROPERS
Info: 148 CROSSTERMS
Info: 0 EXCLUSIONS
Info: 73316 RIGID BONDS
Info: 150301 DEGREES OF FREEDOM
Info: 25254 HYDROGEN GROUPS
Info: 4 ATOMS IN LARGEST HYDROGEN GROUP
Info: 25254 MIGRATION GROUPS
Info: 4 ATOMS IN LARGEST MIGRATION GROUP
Info: TOTAL MASS = 450279 amu
Info: TOTAL CHARGE = 2.14204e-06 e
Info: MASS DENSITY = 0.952635 g/cm^3
Info: ATOM DENSITY = 0.0949662 atoms/A^3
Info: ADDED 85558 IMPLICIT EXCLUSIONS
Info: NONBONDED TABLE R-SQUARED SPACING: 0.0625
Info: NONBONDED TABLE SIZE: 769 POINTS
Info: REMOVING COM VELOCITY -0.0257314 -0.0178232 0.0173272
TCL: Running for 2500000 steps
ETITLE: TS BOND ANGLE DIHED IMPRP ELECT VDW BOUNDARY MISC KINETIC TOTAL TEMP POTENTIAL TOTAL3 TEMPAVG PRESSURE GPRESSURE VOLUME PRESSAVG GPRESSAVG
ENERGY: 0 473.2216 1372.7958 1358.2314 95.9430 -258300.9103 23567.8285 0.0000 375.5471 46249.5718 -184807.7711 309.6965 -231057.3430 -184699.4066 309.6965 -862.6643 -862.7790 784900.0945 -862.6643 -862.7790
ENERGY: 500000 522.7168 1407.5222 1356.3561 97.4053 -258362.2107 23785.7245 0.0000 2.2801 46148.9177 -185041.2881 309.0225 -231190.2057 -184931.2626 309.2359 -819.6131 -820.2054 784900.0945 -802.6371 -802.6374
ENERGY: 1000000 531.6641 1446.8554 1341.2712 105.6307 -258803.9909 23797.6509 0.0000 1.0759 46191.2413 -185388.6014 309.3059 -231579.8427 -185272.6126 309.2256 -844.9115 -845.4538 784900.0945 -811.1648 -811.1839
ENERGY: 1500000 464.0879 1435.8658 1367.8455 93.5905 -258759.3675 23797.7953 0.0000 1.2091 46227.0696 -185371.9039 309.5458 -231598.9734 -185257.1397 309.7406 -797.7840 -800.5000 784900.0945 -797.6560 -797.6615
ENERGY: 2000000 479.2983 1438.8093 1323.8541 82.1945 -257946.4784 23433.5351 0.0000 2.1921 46211.0758 -184975.5191 309.4387 -231186.5949 -184873.4984 309.3235 -880.8569 -881.1197 784900.0945 -808.7761 -808.7884
ENERGY: 2500000 453.6985 1341.9655 1312.3246 88.7536 -258181.8775 23607.5339 0.0000 0.8440 46057.9487 -185318.8088 308.4133 -231376.7575 -185192.9238 308.4234 -755.5101 -756.4288 784900.0945 -819.3751 -819.3630
